data_crystal

_cell_length_a 14.77400
_cell_length_b 15.65300
_cell_length_c 16.87100
_cell_angle_alpha 90.00000
_cell_angle_beta  90.00000
_cell_angle_gamma 90.00000

_symmetry_space_group_name_	'P 1'
_symmetry_space_group_name_H-M	'P 1'

loop_
_symmetry_equiv_pos_as_xyz
  x,y,z

loop_
_atom_site_label
_atom_site_type_symbol
_atom_site_fract_x
_atom_site_fract_y
_atom_site_fract_z
_atom_site_charge
Zn	Zn	0.58806 0.02839 0.23751 1.20600
Zn	Zn	0.34626 0.97532 0.70973 1.20900
Zn	Zn	0.08806 0.47161 0.76249 1.20700
Zn	Zn	0.84626 0.52468 0.29027 1.20900
H 	H 	0.50290 0.84860 0.66490 0.02400
H 	H 	0.16010 0.52830 0.09300 0.07200
H 	H 	0.54310 0.62490 0.11490 0.08600
H 	H 	0.26340 0.20830 0.88500 0.10100
H 	H 	0.38020 0.61880 0.01680 0.05500
H 	H 	0.63260 0.74670 0.88120 0.06000
H 	H 	0.46750 0.61920 0.83240 0.06400
H 	H 	0.76730 0.57140 0.97080 0.09000
H 	H 	0.92690 0.58990 0.81260 0.00500
H 	H 	0.19630 0.20950 0.73380 0.09500
H 	H 	0.92790 0.94320 0.10360 0.07000
H 	H 	0.23250 0.81400 0.64530 0.02900
H 	H 	0.42690 0.91010 0.18740 0.00400
H 	H 	0.10060 0.84870 0.01720 0.06500
H 	H 	0.60310 0.84240 0.13850 0.05300
H 	H 	0.13770 0.56200 0.96420 0.05100
H 	H 	0.34340 0.73300 0.09670 0.06800
H 	H 	0.64270 0.82460 0.74050 0.04500
H 	H 	0.04310 0.87510 0.88510 0.08300
H 	H 	0.10310 0.65760 0.86150 0.04900
H 	H 	0.63770 0.93800 0.03580 0.04800
H 	H 	0.36360 0.88810 0.90820 0.06300
H 	H 	0.39260 0.04540 0.99320 0.06900
H 	H 	0.60240 0.74970 0.28430 0.06100
H 	H 	0.89630 0.72870 0.17130 0.04500
H 	H 	0.89260 0.45460 0.00680 0.05800
H 	H 	0.28300 0.87510 0.10640 0.08400
H 	H 	0.71040 0.89900 0.33510 0.02400
H 	H 	0.36060 0.65760 0.71030 0.03500
H 	H 	0.26730 0.92860 0.02920 0.09200
H 	H 	0.76340 0.29170 0.11500 0.10000
H 	H 	0.14270 0.67540 0.25950 0.04500
H 	H 	0.51120 0.70450 0.16330 0.09100
H 	H 	0.69950 0.56070 0.15800 -0.00100
H 	H 	0.19950 0.93930 0.84200 -0.00200
H 	H 	0.88020 0.88120 0.98320 0.04700
H 	H 	0.66010 0.97170 0.90700 0.06900
H 	H 	0.01120 0.79550 0.83670 0.08900
H 	H 	0.99110 0.50380 0.14860 -0.00500
H 	H 	0.60060 0.65130 0.98280 0.06800
H 	H 	0.93900 0.66200 0.57220 0.10400
H 	H 	0.86360 0.61190 0.09180 0.06400
H 	H 	0.69630 0.29050 0.26620 0.09500
H 	H 	0.76380 0.99870 0.12650 -0.00500
H 	H 	0.21630 0.59760 0.13850 0.07000
H 	H 	0.95950 0.49460 0.53100 0.08800
H 	H 	0.26380 0.50130 0.87350 -0.00600
H 	H 	0.78300 0.62490 0.89360 0.08300
H 	H 	0.51590 0.10980 0.06890 0.02800
H 	H 	0.96750 0.88080 0.16760 0.06300
H 	H 	0.86060 0.84240 0.28970 0.03500
H 	H 	0.10240 0.75030 0.71570 0.06100
H 	H 	0.39630 0.77130 0.82870 0.04600
H 	H 	0.21040 0.60100 0.66490 0.02400
H 	H 	0.01590 0.39020 0.93110 0.03200
H 	H 	0.13260 0.75330 0.11880 0.06400
H 	H 	0.84340 0.76700 0.90330 0.07100
H 	H 	0.43900 0.83800 0.42780 0.10400
H 	H 	0.73250 0.68600 0.35470 0.02900
H 	H 	0.45950 0.00540 0.46900 0.08700
H 	H 	0.49110 0.99620 0.85140 -0.00500
H 	H 	0.00290 0.65140 0.33510 0.02300
H 	H 	0.42790 0.55680 0.89640 0.07000
H 	H 	0.71630 0.90240 0.86150 0.06700
C 	C 	0.25550 0.18780 0.83370 -0.12900
C 	C 	0.85270 0.75870 0.95720 -0.09600
C 	C 	0.13820 0.79550 0.73290 -0.02600
C 	C 	0.12870 0.61960 0.97510 -0.07500
C 	C 	0.84380 0.67770 0.99030 0.08900
C 	C 	0.09360 0.76280 0.93000 0.07200
C 	C 	0.32310 0.62000 0.73750 0.00000
C 	C 	0.41490 0.02600 0.04150 -0.03400
C 	C 	0.15730 0.58490 0.11630 -0.12500
C 	C 	0.69250 0.60030 0.19860 0.09100
C 	C 	0.82310 0.88000 0.26250 0.00100
C 	C 	0.39000 0.92970 0.55280 0.33100
C 	C 	0.45690 0.89450 0.42120 -0.13200
C 	C 	0.63580 0.85030 0.94820 0.05900
C 	C 	0.20550 0.23240 0.78400 -0.11700
C 	C 	0.16240 0.31660 0.80130 0.33400
C 	C 	0.23950 0.58790 0.71230 -0.00200
C 	C 	0.43980 0.94960 0.47660 -0.10800
C 	C 	0.09580 0.63840 0.24650 -0.01500
C 	C 	0.60580 0.70920 0.99400 -0.08800
C 	C 	0.39170 0.68100 0.91590 0.05600
C 	C 	0.70550 0.26760 0.21600 -0.11800
C 	C 	0.80000 0.39450 0.18860 0.34200
C 	C 	0.93420 0.54840 0.85150 0.08000
C 	C 	0.91490 0.47400 0.95850 -0.01500
C 	C 	0.93980 0.55040 0.52340 -0.11000
C 	C 	0.87570 0.82720 0.00580 -0.04800
C 	C 	0.95690 0.60550 0.57880 -0.13200
C 	C 	0.60760 0.82280 0.08660 -0.07300
C 	C 	0.48300 0.06160 0.08320 0.01400
C 	C 	0.59360 0.73720 0.07000 0.08300
C 	C 	0.21010 0.83190 0.69410 0.01400
C 	C 	0.34380 0.82230 0.00970 0.08900
C 	C 	0.81230 0.60310 0.94090 -0.15200
C 	C 	0.50460 0.92000 0.34710 0.33800
C 	C 	0.88580 0.73640 0.11740 -0.04700
C 	C 	0.98300 0.43840 0.91680 0.00600
C 	C 	0.10760 0.67720 0.91340 -0.06400
C 	C 	0.62870 0.88040 0.02490 -0.06200
C 	C 	0.43420 0.95160 0.14850 0.08400
C 	C 	0.51170 0.95660 0.81450 0.09900
C 	C 	0.01170 0.54340 0.18550 0.10000
C 	C 	0.37570 0.67280 0.99420 -0.06300
C 	C 	0.26840 0.53320 0.82720 0.10000
C 	C 	0.30000 0.10550 0.81140 0.34200
C 	C 	0.63820 0.70450 0.26710 -0.02600
C 	C 	0.51860 0.87530 0.71220 0.00700
C 	C 	0.89170 0.81900 0.08410 0.05000
C 	C 	0.00460 0.58000 0.65290 0.33800
C 	C 	0.65730 0.91510 0.88370 -0.11800
C 	C 	0.41410 0.60600 0.86360 -0.12000
C 	C 	0.13580 0.64970 0.05180 0.07100
C 	C 	0.59580 0.86160 0.75350 -0.01500
C 	C 	0.89000 0.57030 0.44720 0.33200
C 	C 	0.36430 0.83350 0.93000 -0.08700
C 	C 	0.86430 0.66650 0.07000 -0.08700
C 	C 	0.73950 0.91210 0.28770 -0.00200
C 	C 	0.76840 0.96680 0.17280 0.10000
C 	C 	0.31230 0.89690 0.05910 -0.15200
C 	C 	0.38580 0.76360 0.88260 -0.05000
C 	C 	0.75550 0.31220 0.16630 -0.12800
C 	C 	0.12600 0.73330 0.06720 -0.07200
C 	C 	0.35270 0.74130 0.04280 -0.08500
C 	C 	0.91410 0.89400 0.13640 -0.11600
C 	C 	0.62600 0.76670 0.93280 -0.06100
C 	C 	0.56310 0.67860 0.13760 -0.15000
C 	C 	0.10580 0.79080 0.00600 -0.07400
C 	C 	0.01860 0.62470 0.28780 0.00800
C 	C 	0.66240 0.18340 0.19870 0.33400
C 	C 	0.71010 0.66810 0.30590 0.01400
C 	C 	0.19250 0.89970 0.80140 0.09100
C 	C 	0.06310 0.82140 0.86240 -0.14400
N 	N 	0.13070 0.83990 0.80210 -0.10400
N 	N 	0.46740 0.93470 0.75110 -0.26600
N 	N 	0.33830 0.58500 0.81000 -0.10800
N 	N 	0.70780 0.96700 0.22910 -0.26100
N 	N 	0.24400 0.89850 0.73760 -0.27100
N 	N 	0.49510 0.01280 0.15180 -0.26600
N 	N 	0.96740 0.56530 0.24890 -0.26600
N 	N 	0.63070 0.66010 0.19790 -0.10300
N 	N 	0.38420 0.95580 0.08290 -0.09500
N 	N 	0.88420 0.54420 0.91710 -0.10000
N 	N 	0.20780 0.53300 0.77090 -0.26200
N 	N 	0.09030 0.58490 0.17970 -0.10400
N 	N 	0.59030 0.91510 0.82030 -0.10500
N 	N 	0.99510 0.48720 0.84820 -0.26300
N 	N 	0.83830 0.91500 0.19000 -0.10800
N 	N 	0.74400 0.60150 0.26240 -0.27100
O 	O 	0.86760 0.64660 0.43100 -0.29500
O 	O 	0.30590 0.09010 0.73740 -0.46200
O 	O 	0.03540 0.50440 0.65850 -0.45600
O 	O 	0.66950 0.14840 0.13170 -0.31300
O 	O 	0.82390 0.44570 0.13650 -0.32400
O 	O 	0.32390 0.05430 0.86350 -0.32300
O 	O 	0.36760 0.85340 0.56900 -0.29500
O 	O 	0.16950 0.35160 0.86830 -0.31200
O 	O 	0.12430 0.35190 0.74290 -0.45700
O 	O 	0.01080 0.63620 0.70570 -0.31400
O 	O 	0.62430 0.14810 0.25710 -0.45700
O 	O 	0.80590 0.40990 0.26260 -0.46200
O 	O 	0.87670 0.50730 0.40250 -0.46300
O 	O 	0.53540 0.99560 0.34150 -0.45500
O 	O 	0.51080 0.86380 0.29430 -0.31400
O 	O 	0.37670 0.99270 0.59750 -0.46200
Zn	Zn	0.15374 0.02468 0.20973 1.20800
Zn	Zn	0.91194 0.97161 0.73751 1.20500
Zn	Zn	0.65374 0.47532 0.79027 1.20800
Zn	Zn	0.41194 0.52839 0.26249 1.20600
H 	H 	0.23270 0.07140 0.52920 0.08900
H 	H 	0.73620 0.00130 0.62650 -0.00500
H 	H 	0.80370 0.70950 0.76620 0.09500
H 	H 	0.85730 0.17540 0.24050 0.04500
H 	H 	0.73270 0.42860 0.47080 0.08900
H 	H 	0.63940 0.15760 0.78970 0.03500
H 	H 	0.99710 0.15140 0.16490 0.02200
H 	H 	0.71700 0.37510 0.39360 0.08200
H 	H 	0.49710 0.34860 0.83510 0.02300
H 	H 	0.13640 0.11190 0.40820 0.06200
H 	H 	0.23620 0.49870 0.37350 -0.00600
H 	H 	0.39940 0.15130 0.51720 0.06500
H 	H 	0.39690 0.34240 0.36150 0.05000
H 	H 	0.03250 0.38080 0.33240 0.06400
H 	H 	0.60370 0.27130 0.67130 0.04700
H 	H 	0.30370 0.79050 0.23380 0.09500
H 	H 	0.28960 0.39900 0.16490 0.02300
H 	H 	0.07210 0.44320 0.39640 0.07000
H 	H 	0.76750 0.31400 0.85470 0.02900
H 	H 	0.07310 0.08990 0.68740 0.00500
H 	H 	0.15660 0.26700 0.59670 0.06800
H 	H 	0.48880 0.20450 0.33670 0.09000
H 	H 	0.06100 0.16200 0.92780 0.10800
H 	H 	0.50890 0.49620 0.64860 -0.00400
H 	H 	0.80050 0.43930 0.65800 -0.00100
H 	H 	0.21700 0.12490 0.60640 0.08300
H 	H 	0.30050 0.06070 0.34200 -0.00200
H 	H 	0.78370 0.09760 0.36150 0.06900
H 	H 	0.95690 0.37510 0.61490 0.08400
H 	H 	0.26750 0.18600 0.14530 0.02900
H 	H 	0.78960 0.10100 0.83510 0.02400
H 	H 	0.56100 0.33800 0.07220 0.10300
H 	H 	0.73660 0.70830 0.61500 0.10000
H 	H 	0.89940 0.34870 0.48280 0.06500
H 	H 	0.98410 0.89020 0.56890 0.02900
H 	H 	0.45690 0.12490 0.38510 0.08300
H 	H 	0.57310 0.41010 0.31260 0.00500
H 	H 	0.13940 0.34240 0.21030 0.03500
H 	H 	0.86230 0.06200 0.53580 0.05000
H 	H 	0.65660 0.23300 0.40330 0.06800
H 	H 	0.00890 0.00380 0.35140 -0.00900
H 	H 	0.53250 0.11920 0.66760 0.06500
H 	H 	0.39760 0.24970 0.21570 0.06100
H 	H 	0.98880 0.29550 0.66330 0.09000
H 	H 	0.04050 0.99460 0.96900 0.08200
H 	H 	0.89760 0.25030 0.78430 0.06100
H 	H 	0.86740 0.25330 0.38120 0.06200
H 	H 	0.48410 0.60980 0.43110 0.03200
H 	H 	0.28370 0.40240 0.63850 0.06900
H 	H 	0.89690 0.15760 0.63850 0.05100
H 	H 	0.33990 0.47170 0.59300 0.07100
H 	H 	0.10370 0.22870 0.32870 0.04700
H 	H 	0.57210 0.05680 0.60360 0.07100
H 	H 	0.10740 0.95460 0.49320 0.06100
H 	H 	0.83990 0.02830 0.40700 0.07100
H 	H 	0.36740 0.24670 0.61880 0.06200
H 	H 	0.23660 0.79170 0.38500 0.10000
H 	H 	0.36230 0.43800 0.46420 0.05000
H 	H 	0.54050 0.50540 0.03100 0.08800
H 	H 	0.35730 0.32460 0.75950 0.04500
H 	H 	0.60740 0.54540 0.50680 0.06000
H 	H 	0.63640 0.38810 0.59180 0.06200
H 	H 	0.11980 0.38120 0.51680 0.05400
H 	H 	0.61980 0.11880 0.48320 0.05400
C 	C 	0.67690 0.12000 0.76250 0.00100
C 	C 	0.30750 0.10030 0.30140 0.09000
C 	C 	0.51700 0.56160 0.41680 0.00600
C 	C 	0.01700 0.93840 0.58320 0.01000
C 	C 	0.98830 0.04340 0.31450 0.10500
C 	C 	0.15620 0.17770 0.50970 0.08400
C 	C 	0.36180 0.20450 0.23290 -0.02600
C 	C 	0.40420 0.36160 0.74650 -0.01500
C 	C 	0.76050 0.08790 0.78770 -0.00200
C 	C 	0.98140 0.12470 0.21220 0.00900
C 	C 	0.86420 0.14970 0.44820 0.06800
C 	C 	0.23160 0.46680 0.32720 0.10000
C 	C 	0.90420 0.13840 0.25350 -0.01600
C 	C 	0.56020 0.44960 0.02340 -0.11300
C 	C 	0.73160 0.03320 0.67280 0.10000
C 	C 	0.70000 0.60550 0.68860 0.34200
C 	C 	0.61420 0.26360 0.61740 -0.05200
C 	C 	0.06580 0.04840 0.64850 0.07800
C 	C 	0.18770 0.10310 0.55910 -0.14900
C 	C 	0.43690 0.17860 0.36240 -0.14600
C 	C 	0.83760 0.81660 0.69870 0.33400
C 	C 	0.74450 0.68780 0.66630 -0.12900
C 	C 	0.68770 0.39690 0.44090 -0.14900
C 	C 	0.37130 0.38040 0.47510 -0.07100
C 	C 	0.87130 0.11960 0.52490 -0.07100
C 	C 	0.49540 0.42000 0.15290 0.33600
C 	C 	0.61000 0.42970 0.94720 0.33300
C 	C 	0.58510 0.52600 0.45850 -0.01700
C 	C 	0.20000 0.89450 0.31140 0.34200
C 	C 	0.54310 0.39450 0.07880 -0.13000
C 	C 	0.17690 0.38000 0.23750 0.00000
C 	C 	0.80750 0.39970 0.69860 0.09100
C 	C 	0.40640 0.23720 0.43000 0.07600
C 	C 	0.79450 0.73240 0.71600 -0.11700
C 	C 	0.11000 0.07030 0.05280 0.32400
C 	C 	0.11420 0.23640 0.38260 -0.05200
C 	C 	0.10830 0.31900 0.41590 0.05600
C 	C 	0.39240 0.32280 0.41340 -0.06700
C 	C 	0.86180 0.29550 0.76710 -0.02600
C 	C 	0.33760 0.68340 0.30130 0.33400
C 	C 	0.06020 0.05040 0.97660 -0.09700
C 	C 	0.63570 0.33350 0.57000 -0.08300
C 	C 	0.99540 0.08000 0.84710 0.34200
C 	C 	0.78990 0.33190 0.80590 0.01400
C 	C 	0.36420 0.35030 0.55180 0.06800
C 	C 	0.48830 0.45660 0.68550 0.09900
C 	C 	0.08590 0.39400 0.36360 -0.12000
C 	C 	0.89420 0.29080 0.49400 -0.08000
C 	C 	0.60830 0.18100 0.58410 0.05600
C 	C 	0.89240 0.17720 0.58660 -0.06700
C 	C 	0.64730 0.24130 0.45720 -0.08500
C 	C 	0.58590 0.10600 0.63640 -0.12000
C 	C 	0.90640 0.26280 0.57000 0.07700
C 	C 	0.04310 0.10550 0.92120 -0.14100
C 	C 	0.93690 0.32140 0.63760 -0.14700
C 	C 	0.34270 0.41510 0.61630 -0.12300
C 	C 	0.62430 0.17280 0.50580 -0.06100
C 	C 	0.13570 0.16650 0.43000 -0.08300
C 	C 	0.65620 0.32230 0.49030 0.08500
C 	C 	0.26050 0.41210 0.21230 -0.00200
C 	C 	0.29450 0.76760 0.28400 -0.11700
C 	C 	0.28990 0.16810 0.19410 0.01400
C 	C 	0.87400 0.23330 0.43280 -0.06800
C 	C 	0.39420 0.20920 0.50600 -0.08000
C 	C 	0.12430 0.32720 0.49420 -0.06100
C 	C 	0.24450 0.81220 0.33370 -0.12800
C 	C 	0.56580 0.45160 0.35150 0.08000
C 	C 	0.84270 0.08490 0.38370 -0.12300
C 	C 	0.37400 0.26670 0.56720 -0.06800
C 	C 	0.14730 0.25870 0.54280 -0.08500
C 	C 	0.08510 0.97400 0.54150 -0.01700
C 	C 	0.48140 0.37530 0.78780 0.00700
N 	N 	0.53260 0.43470 0.74890 -0.26500
N 	N 	0.36930 0.16010 0.30210 -0.10300
N 	N 	0.75600 0.39850 0.76240 -0.27100
N 	N 	0.25600 0.10150 0.23760 -0.27100
N 	N 	0.61580 0.45580 0.41710 -0.10000
N 	N 	0.11580 0.04420 0.58290 -0.10000
N 	N 	0.86930 0.33990 0.69790 -0.10300
N 	N 	0.66170 0.08500 0.69000 -0.10700
N 	N 	0.16170 0.41500 0.31000 -0.10800
N 	N 	0.50490 0.51280 0.34820 -0.26300
N 	N 	0.29220 0.46700 0.27090 -0.26200
N 	N 	0.03260 0.06530 0.25110 -0.26800
N 	N 	0.79220 0.03300 0.72910 -0.26100
N 	N 	0.40970 0.41510 0.67970 -0.10400
N 	N 	0.00490 0.98720 0.65180 -0.26200
N 	N 	0.90970 0.08490 0.32030 -0.10500
O 	O 	0.87570 0.85190 0.75710 -0.45800
O 	O 	0.62330 0.49270 0.90250 -0.46300
O 	O 	0.48920 0.36380 0.20570 -0.31400
O 	O 	0.98920 0.13620 0.79430 -0.31500
O 	O 	0.12330 0.00730 0.09750 -0.46400
O 	O 	0.33050 0.64840 0.36830 -0.31200
O 	O 	0.37570 0.64810 0.24290 -0.45700
O 	O 	0.46460 0.49560 0.15850 -0.45600
O 	O 	0.69410 0.59010 0.76260 -0.46200
O 	O 	0.13240 0.14660 0.06900 -0.29500
O 	O 	0.19410 0.90990 0.23740 -0.46000
O 	O 	0.83050 0.85160 0.63170 -0.31200
O 	O 	0.63240 0.35340 0.93100 -0.29400
O 	O 	0.96460 0.00440 0.84150 -0.45400
O 	O 	0.17610 0.94570 0.36350 -0.32200
O 	O 	0.67610 0.55430 0.63650 -0.32400
