data_crystal

_cell_length_a 12.77450
_cell_length_b 14.18000
_cell_length_c 14.52210
_cell_angle_alpha 70.86000
_cell_angle_beta  88.15800
_cell_angle_gamma 73.63000

_symmetry_space_group_name_	'P 1'
_symmetry_space_group_name_H-M	'P 1'

loop_
_symmetry_equiv_pos_as_xyz
  x,y,z

loop_
_atom_site_label
_atom_site_type_symbol
_atom_site_fract_x
_atom_site_fract_y
_atom_site_fract_z
_atom_site_charge
C 	C 	0.54670 0.10320 0.53760 -0.39200
C 	C 	0.56960 0.06740 0.62560 0.01300
C 	C 	0.59680 0.02960 0.73040 -0.01800
C 	C 	0.53990 0.08380 0.78770 -0.05500
H 	H 	0.48220 0.14350 0.76020 0.02900
C 	C 	0.56880 0.04930 0.88690 0.02000
H 	H 	0.53170 0.08800 0.92490 0.06000
C 	C 	0.64910 0.96140 0.92960 -0.04800
H 	H 	0.66360 0.93690 0.99700 0.13000
C 	C 	0.71110 0.90660 0.87130 0.01200
H 	H 	0.76920 0.84740 0.89950 0.12300
C 	C 	0.68450 0.94180 0.77150 -0.05200
H 	H 	0.72540 0.90670 0.73230 0.09000
C 	C 	0.41410 0.40340 0.54940 -0.43700
C 	C 	0.32070 0.45630 0.52230 0.03200
C 	C 	0.20810 0.51870 0.49680 -0.05500
C 	C 	0.16520 0.56250 0.40120 -0.00500
H 	H 	0.20910 0.55180 0.35110 0.08000
C 	C 	0.05780 0.62210 0.37970 -0.05800
H 	H 	0.02940 0.65140 0.31520 0.15500
C 	C 	0.99260 0.63830 0.45310 0.01900
H 	H 	0.91980 0.67770 0.43760 0.05600
C 	C 	0.03220 0.59760 0.54900 -0.06400
H 	H 	0.98740 0.61070 0.59780 0.12700
C 	C 	0.14120 0.53610 0.57230 -0.00100
H 	H 	0.16920 0.50700 0.63700 0.06900
C 	C 	0.81400 0.21640 0.54250 0.08500
H 	H 	0.79870 0.25530 0.47660 0.03800
C 	C 	0.79550 0.15300 0.69560 0.04200
H 	H 	0.76510 0.14010 0.75590 0.07200
C 	C 	0.89910 0.10630 0.67890 0.00600
H 	H 	0.95210 0.05550 0.72520 0.13900
C 	C 	0.00890 0.12360 0.52690 -0.06800
H 	H 	0.06910 0.13610 0.55540 0.09100
H 	H 	0.99430 0.17050 0.45990 0.11800
C 	C 	0.04280 0.01190 0.52690 -0.10400
H 	H 	0.05470 0.96490 0.59390 0.14100
H 	H 	0.11150 0.99900 0.49620 0.09400
C 	C 	0.53440 0.17740 0.16910 0.04900
H 	H 	0.57690 0.10860 0.18380 0.08200
C 	C 	0.49620 0.24510 0.07710 0.04100
H 	H 	0.50910 0.23230 0.01830 0.07400
C 	C 	0.44080 0.32170 0.18500 0.12800
H 	H 	0.40710 0.37240 0.21250 0.02200
C 	C 	0.38450 0.43320 0.01240 -0.09100
H 	H 	0.33040 0.47810 0.03960 0.17100
H 	H 	0.34700 0.41890 0.96370 0.12100
C 	C 	0.46600 0.48940 0.96350 -0.08400
H 	H 	0.42720 0.55520 0.91520 0.12600
H 	H 	0.51500 0.44800 0.92970 0.10100
C 	C 	0.23550 0.27750 0.35100 0.10300
C 	C 	0.16160 0.33680 0.25720 0.82800
C 	C 	0.26300 0.10200 0.67890 0.12500
C 	C 	0.20250 0.07230 0.77430 0.82600
C 	C 	0.32830 0.61780 0.71320 0.12900
C 	C 	0.24180 0.70340 0.73880 0.81800
C 	C 	0.64400 0.35560 0.81250 0.07600
C 	C 	0.74460 0.30280 0.88580 0.97800
N 	N 	0.74400 0.22110 0.61020 -0.19000
N 	N 	0.91100 0.14760 0.58150 -0.09100
N 	N 	0.50060 0.22630 0.23500 -0.17300
N 	N 	0.43540 0.33520 0.09000 -0.09100
O 	O 	0.28800 0.32640 0.37850 -0.27500
O 	O 	0.23330 0.18520 0.38920 -0.24700
O 	O 	0.27660 0.19150 0.65560 -0.24900
O 	O 	0.29020 0.03540 0.63820 -0.24400
O 	O 	0.38630 0.64820 0.64440 -0.32100
O 	O 	0.32720 0.52820 0.75900 -0.22700
O 	O 	0.64010 0.44310 0.75630 -0.24100
O 	O 	0.58070 0.30270 0.81880 -0.24600
F 	F 	0.13970 0.43900 0.23350 -0.43500
F 	F 	0.06680 0.31520 0.26190 -0.41600
F 	F 	0.20780 0.31360 0.18200 -0.46200
F 	F 	0.16210 0.99380 0.78220 -0.41300
F 	F 	0.27160 0.04310 0.85160 -0.46200
F 	F 	0.11850 0.15030 0.77880 -0.44400
F 	F 	0.25540 0.69900 0.82900 -0.31600
F 	F 	0.24660 0.80070 0.68700 -0.47100
F 	F 	0.14170 0.70710 0.71140 -0.41600
F 	F 	0.83550 0.29370 0.84470 -0.45900
F 	F 	0.75630 0.20380 0.93250 -0.42100
F 	F 	0.72190 0.32100 0.96370 -0.31900
Ag	Ag	0.37743 0.05693 0.49154 0.47600
Ag	Ag	0.53222 0.16917 0.38830 0.50200
Ag	Ag	0.38929 0.24682 0.52866 0.48100
Ag	Ag	0.57744 0.31207 0.58077 0.45400
Ag	Ag	0.42368 0.38225 0.71643 0.50800
Ag	Ag	0.53858 0.53124 0.61184 0.47200
F 	F 	0.21400 0.66600 0.83700 -0.14100
F 	F 	0.76130 0.35600 0.93900 -0.23200
C 	C 	0.45330 0.89680 0.46240 -0.39100
C 	C 	0.43040 0.93260 0.37440 0.01400
C 	C 	0.40320 0.97040 0.26960 -0.01700
C 	C 	0.46010 0.91620 0.21230 -0.05400
H 	H 	0.51780 0.85650 0.23980 0.02900
C 	C 	0.43120 0.95070 0.11310 0.02000
H 	H 	0.46830 0.91200 0.07510 0.06000
C 	C 	0.35090 0.03860 0.07040 -0.04800
H 	H 	0.33640 0.06310 0.00300 0.13000
C 	C 	0.28890 0.09340 0.12870 0.01200
H 	H 	0.23080 0.15260 0.10050 0.12300
C 	C 	0.31550 0.05820 0.22850 -0.05200
H 	H 	0.27460 0.09330 0.26770 0.09000
C 	C 	0.58590 0.59660 0.45060 -0.43700
C 	C 	0.67930 0.54370 0.47770 0.03200
C 	C 	0.79190 0.48130 0.50320 -0.05500
C 	C 	0.83480 0.43750 0.59880 -0.00500
H 	H 	0.79090 0.44820 0.64890 0.08000
C 	C 	0.94220 0.37790 0.62030 -0.05800
H 	H 	0.97060 0.34860 0.68480 0.15500
C 	C 	0.00740 0.36170 0.54690 0.01900
H 	H 	0.08020 0.32230 0.56240 0.05600
C 	C 	0.96780 0.40240 0.45100 -0.06400
H 	H 	0.01260 0.38930 0.40220 0.12700
C 	C 	0.85880 0.46390 0.42770 -0.00100
H 	H 	0.83080 0.49300 0.36300 0.06900
C 	C 	0.18600 0.78360 0.45750 0.08500
H 	H 	0.20130 0.74470 0.52340 0.03800
C 	C 	0.20450 0.84700 0.30440 0.04200
H 	H 	0.23490 0.85990 0.24410 0.07200
C 	C 	0.10090 0.89370 0.32110 0.00600
H 	H 	0.04790 0.94450 0.27480 0.13900
C 	C 	0.99110 0.87640 0.47310 -0.06800
H 	H 	0.93090 0.86390 0.44460 0.09100
H 	H 	0.00570 0.82950 0.54010 0.11800
C 	C 	0.95720 0.98810 0.47310 -0.10400
H 	H 	0.94530 0.03510 0.40610 0.14100
H 	H 	0.88850 0.00100 0.50380 0.09400
C 	C 	0.46560 0.82260 0.83090 0.04900
H 	H 	0.42310 0.89140 0.81620 0.08200
C 	C 	0.50380 0.75490 0.92290 0.04100
H 	H 	0.49090 0.76770 0.98170 0.07400
C 	C 	0.55920 0.67830 0.81500 0.12800
H 	H 	0.59290 0.62760 0.78750 0.02200
C 	C 	0.61550 0.56680 0.98760 -0.09100
H 	H 	0.66960 0.52190 0.96040 0.17100
H 	H 	0.65300 0.58110 0.03630 0.12100
C 	C 	0.53400 0.51060 0.03650 -0.08400
H 	H 	0.57280 0.44480 0.08480 0.12600
H 	H 	0.48500 0.55200 0.07030 0.10100
C 	C 	0.76450 0.72250 0.64900 0.10300
C 	C 	0.83840 0.66320 0.74280 0.82800
C 	C 	0.73700 0.89800 0.32110 0.12500
C 	C 	0.79750 0.92770 0.22570 0.82600
C 	C 	0.67170 0.38220 0.28680 0.12900
C 	C 	0.75820 0.29660 0.26120 0.81800
C 	C 	0.35600 0.64440 0.18750 0.07600
C 	C 	0.25540 0.69720 0.11420 0.97800
N 	N 	0.25600 0.77890 0.38980 -0.19000
N 	N 	0.08900 0.85240 0.41850 -0.09100
N 	N 	0.49940 0.77370 0.76500 -0.17300
N 	N 	0.56460 0.66480 0.91000 -0.09100
O 	O 	0.71200 0.67360 0.62150 -0.27500
O 	O 	0.76670 0.81480 0.61080 -0.24700
O 	O 	0.72340 0.80850 0.34440 -0.24900
O 	O 	0.70980 0.96460 0.36180 -0.24400
O 	O 	0.61370 0.35180 0.35560 -0.32100
O 	O 	0.67280 0.47180 0.24100 -0.22700
O 	O 	0.35990 0.55690 0.24370 -0.24100
O 	O 	0.41930 0.69730 0.18120 -0.24600
F 	F 	0.86030 0.56100 0.76650 -0.43500
F 	F 	0.93320 0.68480 0.73810 -0.41600
F 	F 	0.79220 0.68640 0.81800 -0.46200
F 	F 	0.83790 0.00620 0.21780 -0.41300
F 	F 	0.72840 0.95690 0.14840 -0.46200
F 	F 	0.88150 0.84970 0.22120 -0.44400
F 	F 	0.74460 0.30100 0.17100 -0.31600
F 	F 	0.75340 0.19930 0.31300 -0.47100
F 	F 	0.85830 0.29290 0.28860 -0.41600
F 	F 	0.16450 0.70630 0.15530 -0.45900
F 	F 	0.24370 0.79620 0.06750 -0.42100
F 	F 	0.27810 0.67900 0.03630 -0.31900
Ag	Ag	0.62257 0.94307 0.50846 0.47600
Ag	Ag	0.46778 0.83083 0.61170 0.50200
Ag	Ag	0.61071 0.75318 0.47134 0.48100
Ag	Ag	0.42256 0.68793 0.41923 0.45400
Ag	Ag	0.57632 0.61775 0.28357 0.50800
Ag	Ag	0.46142 0.46876 0.38816 0.47200
F 	F 	0.78600 0.33400 0.16300 -0.14100
F 	F 	0.23870 0.64400 0.06100 -0.23200
