data_crystal

_cell_length_a 5.74800
_cell_length_b 17.79400
_cell_length_c 18.33900
_cell_angle_alpha 95.83000
_cell_angle_beta  98.89000
_cell_angle_gamma 95.49000

_symmetry_space_group_name_	'P 1'
_symmetry_space_group_name_H-M	'P 1'

loop_
_symmetry_equiv_pos_as_xyz
  x,y,z

loop_
_atom_site_label
_atom_site_type_symbol
_atom_site_fract_x
_atom_site_fract_y
_atom_site_fract_z
_atom_site_charge
Ag	Ag	0.10248 0.55109 0.37965 0.48100
Ag	Ag	0.36485 0.42763 0.50033 0.46000
Ag	Ag	0.61791 0.03445 0.19056 0.47000
Ag	Ag	0.26721 0.94860 0.00600 0.48900
C 	C 	0.55290 0.45780 0.35800 0.41400
C 	C 	0.58370 0.42580 0.28180 -0.45900
H 	H 	0.70600 0.39180 0.28670 0.14700
H 	H 	0.63900 0.46720 0.25600 0.13800
C 	C 	0.36420 0.38330 0.23510 0.15500
H 	H 	0.40210 0.36440 0.18730 -0.03900
H 	H 	0.24660 0.41840 0.22630 -0.03800
C 	C 	0.39630 0.25020 0.26700 0.02800
H 	H 	0.56130 0.26700 0.28720 -0.00300
H 	H 	0.38740 0.22860 0.21580 -0.01100
C 	C 	0.30210 0.18850 0.31210 -0.24200
H 	H 	0.41110 0.15020 0.31590 0.05800
H 	H 	0.29680 0.21150 0.36200 0.06800
C 	C 	0.06030 0.15100 0.27770 0.08300
C 	C 	0.75640 0.91190 0.08040 0.40600
C 	C 	0.83030 0.83290 0.08550 -0.43800
H 	H 	0.82980 0.80860 0.03560 0.12700
H 	H 	0.99150 0.83740 0.11200 0.13600
C 	C 	0.67560 0.78260 0.12360 0.12700
H 	H 	0.68520 0.73000 0.10550 -0.02800
H 	H 	0.51250 0.79260 0.11010 -0.02000
C 	C 	0.59540 0.73790 0.24540 0.03600
H 	H 	0.43130 0.74820 0.23740 -0.00200
H 	H 	0.60170 0.68640 0.22320 -0.00000
C 	C 	0.68480 0.74420 0.32710 -0.26100
H 	H 	0.85120 0.73660 0.33560 0.07100
H 	H 	0.66860 0.79450 0.35020 0.07500
C 	C 	0.55110 0.68790 0.35900 0.08600
N 	N 	0.25710 0.31710 0.26930 -0.23300
H 	H 	0.09990 0.30110 0.24260 0.07900
H 	H 	0.24440 0.33360 0.31980 0.09400
N 	N 	0.88440 0.11910 0.25150 -0.24500
N 	N 	0.74040 0.79300 0.20770 -0.22800
H 	H 	0.71830 0.84390 0.22590 0.07300
H 	H 	0.90530 0.78700 0.22070 0.07800
N 	N 	0.44520 0.64230 0.38400 -0.25300
O 	O 	0.34910 0.44620 0.37790 -0.45500
O 	O 	0.73020 0.49420 0.40050 -0.48600
O 	O 	0.56300 0.92620 0.09900 -0.46600
O 	O 	0.89010 0.95790 0.05390 -0.47000
Ag	Ag	0.89752 0.44891 0.62035 0.48000
Ag	Ag	0.63515 0.57237 0.49967 0.45900
Ag	Ag	0.38209 0.96555 0.80944 0.46900
Ag	Ag	0.73279 0.05140 0.99400 0.48800
C 	C 	0.44710 0.54220 0.64200 0.41400
C 	C 	0.41630 0.57420 0.71820 -0.45900
H 	H 	0.29400 0.60820 0.71330 0.14700
H 	H 	0.36100 0.53280 0.74400 0.13800
C 	C 	0.63580 0.61670 0.76490 0.15500
H 	H 	0.59790 0.63560 0.81270 -0.03900
H 	H 	0.75340 0.58160 0.77370 -0.03800
C 	C 	0.60370 0.74980 0.73300 0.02800
H 	H 	0.43870 0.73300 0.71280 -0.00300
H 	H 	0.61260 0.77140 0.78420 -0.01100
C 	C 	0.69790 0.81150 0.68790 -0.24200
H 	H 	0.58890 0.84980 0.68410 0.05800
H 	H 	0.70320 0.78850 0.63800 0.06800
C 	C 	0.93970 0.84900 0.72230 0.08300
C 	C 	0.24360 0.08810 0.91960 0.40600
C 	C 	0.16970 0.16710 0.91450 -0.43800
H 	H 	0.17020 0.19140 0.96440 0.12700
H 	H 	0.00850 0.16260 0.88800 0.13600
C 	C 	0.32440 0.21740 0.87640 0.12700
H 	H 	0.31480 0.27000 0.89450 -0.02800
H 	H 	0.48750 0.20740 0.88990 -0.02000
C 	C 	0.40460 0.26210 0.75460 0.03600
H 	H 	0.56870 0.25180 0.76260 -0.00200
H 	H 	0.39830 0.31360 0.77680 -0.00000
C 	C 	0.31520 0.25580 0.67290 -0.26100
H 	H 	0.14880 0.26340 0.66440 0.07100
H 	H 	0.33140 0.20550 0.64980 0.07500
C 	C 	0.44890 0.31210 0.64100 0.08600
N 	N 	0.74290 0.68290 0.73070 -0.23300
H 	H 	0.90010 0.69890 0.75740 0.07900
H 	H 	0.75560 0.66640 0.68020 0.09400
N 	N 	0.11560 0.88090 0.74850 -0.24500
N 	N 	0.25960 0.20700 0.79230 -0.22800
H 	H 	0.28170 0.15610 0.77410 0.07300
H 	H 	0.09470 0.21300 0.77930 0.07800
N 	N 	0.55480 0.35770 0.61600 -0.25300
O 	O 	0.65090 0.55380 0.62210 -0.45500
O 	O 	0.26980 0.50580 0.59950 -0.48600
O 	O 	0.43700 0.07380 0.90100 -0.46600
O 	O 	0.10990 0.04210 0.94610 -0.47000
