data_crystal

_cell_length_a 11.04170
_cell_length_b 12.13500
_cell_length_c 19.65090
_cell_angle_alpha 90.00000
_cell_angle_beta  90.00000
_cell_angle_gamma 90.00000

_symmetry_space_group_name_	'P 1'
_symmetry_space_group_name_H-M	'P 1'

loop_
_symmetry_equiv_pos_as_xyz
  x,y,z

loop_
_atom_site_label
_atom_site_type_symbol
_atom_site_fract_x
_atom_site_fract_y
_atom_site_fract_z
_atom_site_charge
La	La	0.63583 0.15959 0.12136 1.59700
La	La	0.11641 0.98193 0.33513 1.65100
La	La	0.36417 0.84041 0.62136 1.59300
La	La	0.88359 0.01807 0.83513 1.63900
La	La	0.86417 0.65959 0.12136 1.59300
La	La	0.38359 0.48193 0.33513 1.65200
La	La	0.13583 0.34041 0.62136 1.59700
La	La	0.61641 0.51807 0.83513 1.65100
H 	H 	0.84500 0.01250 0.23220 -0.03100
H 	H 	0.73370 0.26780 0.38800 0.07400
H 	H 	0.37030 0.09980 0.23160 -0.01600
H 	H 	0.50760 0.74740 0.22420 0.04700
H 	H 	0.15500 0.98750 0.73220 -0.03000
H 	H 	0.26630 0.73220 0.88800 0.07300
H 	H 	0.62970 0.90020 0.73160 -0.01700
H 	H 	0.49240 0.25260 0.72420 0.04700
H 	H 	0.65500 0.51250 0.23220 -0.02900
H 	H 	0.76630 0.76780 0.38800 0.07300
H 	H 	0.12970 0.59980 0.23160 -0.01400
H 	H 	0.99240 0.24740 0.22420 0.02200
H 	H 	0.34500 0.48750 0.73220 -0.03000
H 	H 	0.23370 0.23220 0.88800 0.07400
H 	H 	0.87030 0.40020 0.73160 -0.01600
H 	H 	0.00760 0.75260 0.72420 0.06200
C 	C 	0.82370 0.06730 0.26300 0.11700
C 	C 	0.86250 0.15760 0.36270 -0.00500
C 	C 	0.75870 0.21800 0.35490 -0.04100
C 	C 	0.69270 0.20220 0.29630 -0.01600
C 	C 	0.58650 0.27580 0.27750 0.35300
C 	C 	0.94730 0.17600 0.42230 0.28700
C 	C 	0.39830 0.02750 0.23060 0.11200
C 	C 	0.37340 0.84990 0.26060 -0.04100
C 	C 	0.48040 0.81980 0.22640 -0.02500
C 	C 	0.54130 0.90590 0.19650 -0.02700
C 	C 	0.66130 0.88460 0.15810 0.34600
C 	C 	0.29580 0.76100 0.29380 0.35700
C 	C 	0.17800 0.88720 0.49120 0.21100
C 	C 	0.29920 0.93840 0.46800 0.25300
C 	C 	0.17630 0.93270 0.76300 0.11600
C 	C 	0.13750 0.84240 0.86270 -0.00900
C 	C 	0.24130 0.78200 0.85490 -0.03700
C 	C 	0.30730 0.79780 0.79630 -0.01800
C 	C 	0.41350 0.72420 0.77750 0.35400
C 	C 	0.05270 0.82400 0.92230 0.31300
C 	C 	0.60170 0.97250 0.73060 0.11000
C 	C 	0.62660 0.15010 0.76060 -0.04200
C 	C 	0.51960 0.18020 0.72640 -0.02500
C 	C 	0.45870 0.09410 0.69650 -0.02600
C 	C 	0.33870 0.11540 0.65810 0.34600
C 	C 	0.70420 0.23900 0.79380 0.35700
C 	C 	0.82200 0.11280 0.99120 0.20100
C 	C 	0.70080 0.06160 0.96800 0.24100
C 	C 	0.67630 0.56730 0.26300 0.11600
C 	C 	0.63750 0.65760 0.36270 -0.00800
C 	C 	0.74130 0.71800 0.35490 -0.03800
C 	C 	0.80730 0.70220 0.29630 -0.01800
C 	C 	0.91350 0.77580 0.27750 0.35300
C 	C 	0.55270 0.67600 0.42230 0.30700
C 	C 	0.10170 0.52750 0.23060 0.10500
C 	C 	0.12660 0.34990 0.26060 -0.05600
C 	C 	0.01960 0.31980 0.22640 0.02700
C 	C 	0.95870 0.40590 0.19650 -0.06000
C 	C 	0.83870 0.38460 0.15810 0.35500
C 	C 	0.20420 0.26100 0.29380 0.36300
C 	C 	0.32200 0.38720 0.49120 0.21200
C 	C 	0.20080 0.43840 0.46800 0.25300
C 	C 	0.32370 0.43270 0.76300 0.11700
C 	C 	0.36250 0.34240 0.86270 -0.00800
C 	C 	0.25870 0.28200 0.85490 -0.03900
C 	C 	0.19270 0.29780 0.79630 -0.01500
C 	C 	0.08650 0.22420 0.77750 0.35200
C 	C 	0.44730 0.32400 0.92230 0.30700
C 	C 	0.89830 0.47250 0.73060 0.09600
C 	C 	0.87340 0.65010 0.76060 -0.03400
C 	C 	0.98040 0.68020 0.72640 -0.05500
C 	C 	0.04130 0.59410 0.69650 -0.01000
C 	C 	0.16130 0.61540 0.65810 0.34100
C 	C 	0.79580 0.73900 0.79380 0.35300
C 	C 	0.67800 0.61280 0.99120 0.20300
C 	C 	0.79920 0.56160 0.96800 0.24300
N 	N 	0.72510 0.12640 0.24970 -0.18100
N 	N 	0.89340 0.08080 0.31700 -0.19700
N 	N 	0.50000 0.00890 0.19630 -0.19200
N 	N 	0.33280 0.95310 0.26360 -0.18600
N 	N 	0.27490 0.87360 0.74970 -0.18100
N 	N 	0.10660 0.91920 0.81700 -0.19200
N 	N 	0.50000 0.99110 0.69630 -0.19400
N 	N 	0.66720 0.04690 0.76360 -0.18600
N 	N 	0.77490 0.62640 0.24970 -0.18100
N 	N 	0.60660 0.58080 0.31700 -0.19300
N 	N 	-0.00000 0.50890 0.19630 -0.18100
N 	N 	0.16720 0.45310 0.26360 -0.18000
N 	N 	0.22510 0.37360 0.74970 -0.18100
N 	N 	0.39340 0.41920 0.81700 -0.19300
N 	N 	-0.00000 0.49110 0.69630 -0.18900
N 	N 	0.83280 0.54690 0.76360 -0.18500
O 	O 	0.54310 0.26390 0.21900 -0.43400
O 	O 	0.55300 0.34370 0.32170 -0.39000
O 	O 	0.03850 0.11550 0.42610 -0.35400
O 	O 	0.91730 0.24930 0.46310 -0.27200
O 	O 	0.70980 0.96550 0.12860 -0.40900
O 	O 	0.70270 0.78970 0.16270 -0.39600
O 	O 	0.20080 0.79180 0.32220 -0.39400
O 	O 	0.33290 0.66280 0.28940 -0.43100
O 	O 	0.09120 0.88530 0.44830 -0.31500
O 	O 	0.17370 0.85020 0.55050 -0.33800
O 	O 	0.29590 0.99430 0.41310 -0.34400
O 	O 	0.38730 0.92460 0.50450 -0.36600
O 	O 	0.45690 0.73610 0.71900 -0.43600
O 	O 	0.44700 0.65630 0.82170 -0.39000
O 	O 	0.96150 0.88450 0.92610 -0.37500
O 	O 	0.08270 0.75070 0.96310 -0.27300
O 	O 	0.29020 0.03450 0.62860 -0.40700
O 	O 	0.29730 0.21030 0.66270 -0.39600
O 	O 	0.79920 0.20820 0.82220 -0.39800
O 	O 	0.66710 0.33720 0.78940 -0.43200
O 	O 	0.90880 0.11470 0.94830 -0.32000
O 	O 	0.82630 0.14980 0.05050 -0.33100
O 	O 	0.70410 0.00570 0.91310 -0.34100
O 	O 	0.61270 0.07540 0.00450 -0.35300
O 	O 	0.95690 0.76390 0.21900 -0.43700
O 	O 	0.94700 0.84370 0.32170 -0.39100
O 	O 	0.46150 0.61550 0.42610 -0.37100
O 	O 	0.58270 0.74930 0.46310 -0.27200
O 	O 	0.79020 0.46550 0.12860 -0.41200
O 	O 	0.79730 0.28970 0.16270 -0.40000
O 	O 	0.29920 0.29180 0.32220 -0.39600
O 	O 	0.16710 0.16280 0.28940 -0.42700
O 	O 	0.40880 0.38530 0.44830 -0.31600
O 	O 	0.32630 0.35020 0.55050 -0.33900
O 	O 	0.20410 0.49430 0.41310 -0.34100
O 	O 	0.11270 0.42460 0.50450 -0.36300
O 	O 	0.04310 0.23610 0.71900 -0.43000
O 	O 	0.05300 0.15630 0.82170 -0.38200
O 	O 	0.53850 0.38450 0.92610 -0.37300
O 	O 	0.41730 0.25070 0.96310 -0.27500
O 	O 	0.20980 0.53450 0.62860 -0.40900
O 	O 	0.20270 0.71030 0.66270 -0.39500
O 	O 	0.70080 0.70820 0.82220 -0.39400
O 	O 	0.83290 0.83720 0.78940 -0.43000
O 	O 	0.59120 0.61470 0.94830 -0.31500
O 	O 	0.67370 0.64980 0.05050 -0.33000
O 	O 	0.79590 0.50570 0.91310 -0.34300
O 	O 	0.88730 0.57540 0.00450 -0.35800
