data_crystal

_cell_length_a 15.51200
_cell_length_b 13.79530
_cell_length_c 13.01990
_cell_angle_alpha 90.00000
_cell_angle_beta  90.00000
_cell_angle_gamma 90.00000

_symmetry_space_group_name_	'P 1'
_symmetry_space_group_name_H-M	'P 1'

loop_
_symmetry_equiv_pos_as_xyz
  x,y,z

loop_
_atom_site_label
_atom_site_type_symbol
_atom_site_fract_x
_atom_site_fract_y
_atom_site_fract_z
_atom_site_charge
U 	U 	0.24452 0.49013 0.43733 0.03700
U 	U 	0.22309 0.23857 0.58577 0.03800
P 	P 	0.22270 0.01820 0.17570 0.47400
P 	P 	0.18670 0.24210 0.34450 0.46500
O 	O 	0.19750 0.32780 0.42050 -0.12200
O 	O 	0.26730 0.09300 0.10270 -0.12300
O 	O 	0.21090 0.93180 0.10110 -0.12400
O 	O 	0.20900 0.15360 0.41410 -0.12400
O 	O 	0.28150 0.99220 0.26410 -0.13700
O 	O 	0.25410 0.25180 0.25680 -0.13200
O 	O 	0.09520 0.23870 0.30600 -0.13200
O 	O 	0.13740 0.05340 0.21350 -0.14700
U 	U 	0.74452 0.99013 0.43733 0.03900
U 	U 	0.72309 0.73857 0.58577 0.03900
P 	P 	0.72270 0.51820 0.17570 0.47600
P 	P 	0.68670 0.74210 0.34450 0.46500
O 	O 	0.69750 0.82780 0.42050 -0.12100
O 	O 	0.76730 0.59300 0.10270 -0.12200
O 	O 	0.71090 0.43180 0.10110 -0.12500
O 	O 	0.70900 0.65360 0.41410 -0.12400
O 	O 	0.78150 0.49220 0.26410 -0.13800
O 	O 	0.75410 0.75180 0.25680 -0.13100
O 	O 	0.59520 0.73870 0.30600 -0.13100
O 	O 	0.63740 0.55340 0.21350 -0.14600
U 	U 	0.75548 0.50987 0.93733 0.03900
U 	U 	0.77691 0.76143 0.08577 0.04000
P 	P 	0.77730 0.98180 0.67570 0.47400
P 	P 	0.81330 0.75790 0.84450 0.46500
O 	O 	0.80250 0.67220 0.92050 -0.12100
O 	O 	0.73270 0.90700 0.60270 -0.12200
O 	O 	0.78910 0.06820 0.60110 -0.12400
O 	O 	0.79100 0.84640 0.91410 -0.12500
O 	O 	0.71850 0.00780 0.76410 -0.13700
O 	O 	0.74590 0.74820 0.75680 -0.13200
O 	O 	0.90480 0.76130 0.80600 -0.12900
O 	O 	0.86260 0.94660 0.71350 -0.14500
U 	U 	0.25548 0.00987 0.93733 0.04000
U 	U 	0.27691 0.26143 0.08577 0.03800
P 	P 	0.27730 0.48180 0.67570 0.47600
P 	P 	0.31330 0.25790 0.84450 0.46500
O 	O 	0.30250 0.17220 0.92050 -0.12100
O 	O 	0.23270 0.40700 0.60270 -0.12300
O 	O 	0.28910 0.56820 0.60110 -0.12600
O 	O 	0.29100 0.34640 0.91410 -0.12400
O 	O 	0.21850 0.50780 0.76410 -0.13900
O 	O 	0.24590 0.24820 0.75680 -0.13200
O 	O 	0.40480 0.26130 0.80600 -0.13100
O 	O 	0.36260 0.44660 0.71350 -0.14600
U 	U 	0.24452 0.50987 0.93733 0.03800
U 	U 	0.22309 0.76143 0.08577 0.03900
P 	P 	0.22270 0.98180 0.67570 0.47400
P 	P 	0.18670 0.75790 0.84450 0.46500
O 	O 	0.19750 0.67220 0.92050 -0.12200
O 	O 	0.26730 0.90700 0.60270 -0.12300
O 	O 	0.21090 0.06820 0.60110 -0.12500
O 	O 	0.20900 0.84640 0.91410 -0.12500
O 	O 	0.28150 0.00780 0.76410 -0.13700
O 	O 	0.25410 0.74820 0.75680 -0.13200
O 	O 	0.09520 0.76130 0.80600 -0.13200
O 	O 	0.13740 0.94660 0.71350 -0.14700
U 	U 	0.74452 0.00987 0.93733 0.04000
U 	U 	0.72309 0.26143 0.08577 0.03900
P 	P 	0.72270 0.48180 0.67570 0.47600
P 	P 	0.68670 0.25790 0.84450 0.46500
O 	O 	0.69750 0.17220 0.92050 -0.12100
O 	O 	0.76730 0.40700 0.60270 -0.12200
O 	O 	0.71090 0.56820 0.60110 -0.12500
O 	O 	0.70900 0.34640 0.91410 -0.12300
O 	O 	0.78150 0.50780 0.76410 -0.13800
O 	O 	0.75410 0.24820 0.75680 -0.13100
O 	O 	0.59520 0.26130 0.80600 -0.13100
O 	O 	0.63740 0.44660 0.71350 -0.14600
U 	U 	0.75548 0.49013 0.43733 0.03900
U 	U 	0.77691 0.23857 0.58577 0.03900
P 	P 	0.77730 0.01820 0.17570 0.47400
P 	P 	0.81330 0.24210 0.34450 0.46500
O 	O 	0.80250 0.32780 0.42050 -0.12100
O 	O 	0.73270 0.09300 0.10270 -0.12300
O 	O 	0.78910 0.93180 0.10110 -0.12300
O 	O 	0.79100 0.15360 0.41410 -0.12300
O 	O 	0.71850 0.99220 0.26410 -0.13700
O 	O 	0.74590 0.25180 0.25680 -0.13200
O 	O 	0.90480 0.23870 0.30600 -0.12900
O 	O 	0.86260 0.05340 0.21350 -0.14500
U 	U 	0.25548 0.99013 0.43733 0.03900
U 	U 	0.27691 0.73857 0.58577 0.03800
P 	P 	0.27730 0.51820 0.17570 0.47600
P 	P 	0.31330 0.74210 0.34450 0.46500
O 	O 	0.30250 0.82780 0.42050 -0.12100
O 	O 	0.23270 0.59300 0.10270 -0.12300
O 	O 	0.28910 0.43180 0.10110 -0.12600
O 	O 	0.29100 0.65360 0.41410 -0.12400
O 	O 	0.21850 0.49220 0.26410 -0.13900
O 	O 	0.24590 0.75180 0.25680 -0.13200
O 	O 	0.40480 0.73870 0.30600 -0.13100
O 	O 	0.36260 0.55340 0.21350 -0.14600
U 	U 	-0.00000 0.11612 0.24394 0.04100
U 	U 	0.50000 0.61612 0.24394 0.04400
U 	U 	0.00000 0.88388 0.74394 0.04100
U 	U 	0.50000 0.38388 0.74394 0.04400
