data_crystal

_cell_length_a 10.50850
_cell_length_b 10.50850
_cell_length_c 10.87720
_cell_angle_alpha 101.17300
_cell_angle_beta  117.53000
_cell_angle_gamma 108.72300

_symmetry_space_group_name_	'P 1'
_symmetry_space_group_name_H-M	'P 1'

loop_
_symmetry_equiv_pos_as_xyz
  x,y,z

loop_
_atom_site_label
_atom_site_type_symbol
_atom_site_fract_x
_atom_site_fract_y
_atom_site_fract_z
_atom_site_charge
Eu	Eu	0.25506 0.06835 0.62039 1.85800
Eu	Eu	0.94796 0.63467 0.87961 1.82200
Eu	Eu	0.74494 0.93165 0.37961 1.85900
Eu	Eu	0.05204 0.36533 0.12039 1.82300
H 	H 	0.36230 0.74830 0.85200 0.25500
H 	H 	0.29800 0.72210 0.68350 0.25700
H 	H 	0.89260 0.55070 0.28310 0.24400
H 	H 	0.39630 0.51030 0.64800 0.25500
H 	H 	0.53860 0.61450 0.81650 0.25600
H 	H 	0.76760 0.60950 0.21690 0.24200
H 	H 	0.63770 0.25170 0.14800 0.25500
H 	H 	0.70200 0.27790 0.31650 0.25700
H 	H 	0.10740 0.44930 0.71690 0.24400
H 	H 	0.60370 0.48970 0.35200 0.25500
H 	H 	0.46140 0.38550 0.18350 0.25600
H 	H 	0.23240 0.39050 0.78310 0.24200
C 	C 	0.47990 0.92810 0.83100 0.60600
C 	C 	0.33080 0.79140 0.77880 -0.82400
C 	C 	0.18450 0.80350 0.75620 0.69800
C 	C 	0.00080 0.77590 0.37490 0.59000
C 	C 	0.59710 0.64890 0.66900 0.60300
C 	C 	0.51260 0.55200 0.72120 -0.82400
C 	C 	0.54730 0.42830 0.74380 0.70000
C 	C 	0.90100 0.62590 0.12510 0.59200
C 	C 	0.52010 0.07190 0.16900 0.60600
C 	C 	0.66920 0.20860 0.22120 -0.82400
C 	C 	0.81550 0.19650 0.24380 0.69800
C 	C 	0.99920 0.22410 0.62510 0.59000
C 	C 	0.40290 0.35110 0.33100 0.60300
C 	C 	0.48740 0.44800 0.27880 -0.82400
C 	C 	0.45270 0.57170 0.25620 0.70000
C 	C 	0.09900 0.37410 0.87490 0.59200
C 	C 	0.87560 0.62560 0.25000 -0.78400
C 	C 	0.12440 0.37440 0.75000 -0.78400
O 	O 	0.46530 0.02120 0.77470 -0.55700
O 	O 	0.14870 0.89390 0.70720 -0.55300
O 	O 	0.09860 0.71640 0.78360 -0.62000
O 	O 	0.61600 0.94420 0.92780 -0.39300
O 	O 	0.14830 0.80960 0.44170 -0.51700
O 	O 	0.95750 0.86900 0.40790 -0.64000
O 	O 	0.74650 0.69060 0.72530 -0.55400
O 	O 	0.68670 0.44150 0.79280 -0.55900
O 	O 	0.43280 0.31500 0.71640 -0.63200
O 	O 	0.51640 0.68820 0.57220 -0.38900
O 	O 	0.86790 0.70660 0.05830 -0.50700
O 	O 	0.96110 0.54960 0.09210 -0.62600
O 	O 	0.53470 0.97880 0.22530 -0.55700
O 	O 	0.85130 0.10610 0.29280 -0.55300
O 	O 	0.90140 0.28360 0.21640 -0.62000
O 	O 	0.38400 0.05580 0.07220 -0.39300
O 	O 	0.85170 0.19040 0.55830 -0.51700
O 	O 	0.04250 0.13100 0.59210 -0.64000
O 	O 	0.25350 0.30940 0.27470 -0.55400
O 	O 	0.31330 0.55850 0.20720 -0.55900
O 	O 	0.56720 0.68500 0.28360 -0.63200
O 	O 	0.48360 0.31180 0.42780 -0.38900
O 	O 	0.13210 0.29340 0.94170 -0.50700
O 	O 	0.03890 0.45040 0.90790 -0.62600
