data_crystal

_cell_length_a 13.83400
_cell_length_b 13.83400
_cell_length_c 6.16200
_cell_angle_alpha 90.00000
_cell_angle_beta  90.00000
_cell_angle_gamma 90.00000

_symmetry_space_group_name_	'P 1'
_symmetry_space_group_name_H-M	'P 1'

loop_
_symmetry_equiv_pos_as_xyz
  x,y,z

loop_
_atom_site_label
_atom_site_type_symbol
_atom_site_fract_x
_atom_site_fract_y
_atom_site_fract_z
_atom_site_charge
S 	S 	0.47298 0.60196 0.23856 -0.01500
N 	N 	0.32319 0.65123 0.74730 -0.18300
C 	C 	0.37797 0.55880 0.08620 -0.03400
C 	C 	0.34311 0.47269 0.16390 -0.03000
H 	H 	0.29210 0.43880 0.10170 0.04100
C 	C 	0.39397 0.44188 0.34910 -0.06600
H 	H 	0.37980 0.38510 0.42320 0.05400
C 	C 	0.46636 0.50366 0.40930 0.00900
C 	C 	0.34690 0.60950 0.89860 0.08900
S 	S 	0.02702 0.89804 0.23856 -0.01600
N 	N 	0.17681 0.84877 0.74730 -0.18400
C 	C 	0.12203 0.94120 0.08620 -0.03500
C 	C 	0.15689 0.02731 0.16390 -0.03100
H 	H 	0.20790 0.06120 0.10170 0.04100
C 	C 	0.10603 0.05812 0.34910 -0.06600
H 	H 	0.12020 0.11490 0.42320 0.05400
C 	C 	0.03364 0.99634 0.40930 0.00900
C 	C 	0.15310 0.89050 0.89860 0.08800
S 	S 	0.89804 0.47298 0.23856 -0.01600
N 	N 	0.84877 0.32319 0.74730 -0.18400
C 	C 	0.94120 0.37797 0.08620 -0.03500
C 	C 	0.02731 0.34311 0.16390 -0.03100
H 	H 	0.06120 0.29210 0.10170 0.04100
C 	C 	0.05812 0.39397 0.34910 -0.06600
H 	H 	0.11490 0.37980 0.42320 0.05400
C 	C 	0.99634 0.46636 0.40930 0.00900
C 	C 	0.89050 0.34690 0.89860 0.08800
S 	S 	0.60196 0.02702 0.23856 -0.01600
N 	N 	0.65123 0.17681 0.74730 -0.18400
C 	C 	0.55880 0.12203 0.08620 -0.03500
C 	C 	0.47269 0.15689 0.16390 -0.03100
H 	H 	0.43880 0.20790 0.10170 0.04100
C 	C 	0.44188 0.10603 0.34910 -0.06600
H 	H 	0.38510 0.12020 0.42320 0.05400
C 	C 	0.50366 0.03364 0.40930 0.00900
C 	C 	0.60950 0.15310 0.89860 0.08800
S 	S 	0.52702 0.39804 0.76144 -0.01600
N 	N 	0.67681 0.34877 0.25270 -0.18400
C 	C 	0.62203 0.44120 0.91380 -0.03500
C 	C 	0.65689 0.52731 0.83610 -0.03100
H 	H 	0.70790 0.56120 0.89830 0.04100
C 	C 	0.60603 0.55812 0.65090 -0.06600
H 	H 	0.62020 0.61490 0.57680 0.05400
C 	C 	0.53364 0.49634 0.59070 0.00900
C 	C 	0.65310 0.39050 0.10140 0.08900
S 	S 	0.97298 0.10196 0.76144 -0.01600
N 	N 	0.82319 0.15123 0.25270 -0.18400
C 	C 	0.87797 0.05880 0.91380 -0.03500
C 	C 	0.84311 0.97269 0.83610 -0.03100
H 	H 	0.79210 0.93880 0.89830 0.04100
C 	C 	0.89397 0.94188 0.65090 -0.06600
H 	H 	0.87980 0.88510 0.57680 0.05400
C 	C 	0.96636 0.00366 0.59070 0.00900
C 	C 	0.84690 0.10950 0.10140 0.08800
S 	S 	0.10196 0.52702 0.76144 -0.01600
N 	N 	0.15123 0.67681 0.25270 -0.18400
C 	C 	0.05880 0.62203 0.91380 -0.03500
C 	C 	0.97269 0.65689 0.83610 -0.03100
H 	H 	0.93880 0.70790 0.89830 0.04100
C 	C 	0.94188 0.60603 0.65090 -0.06600
H 	H 	0.88510 0.62020 0.57680 0.05400
C 	C 	0.00366 0.53364 0.59070 0.00900
C 	C 	0.10950 0.65310 0.10140 0.08800
S 	S 	0.39804 0.97298 0.76144 -0.01600
N 	N 	0.34877 0.82319 0.25270 -0.18400
C 	C 	0.44120 0.87797 0.91380 -0.03500
C 	C 	0.52731 0.84311 0.83610 -0.03100
H 	H 	0.56120 0.79210 0.89830 0.04100
C 	C 	0.55812 0.89397 0.65090 -0.06600
H 	H 	0.61490 0.87980 0.57680 0.05400
C 	C 	0.49634 0.96636 0.59070 0.00900
C 	C 	0.39050 0.84690 0.10140 0.08800
Ag	Ag	0.25000 0.75000 0.50000 0.55700
Ag	Ag	0.75000 0.25000 0.50000 0.55700
