data_crystal

_cell_length_a 15.38730
_cell_length_b 15.38730
_cell_length_c 9.83790
_cell_angle_alpha 90.00000
_cell_angle_beta  90.00000
_cell_angle_gamma 90.00000

_symmetry_space_group_name_	'P 1'
_symmetry_space_group_name_H-M	'P 1'

loop_
_symmetry_equiv_pos_as_xyz
  x,y,z

loop_
_atom_site_label
_atom_site_type_symbol
_atom_site_fract_x
_atom_site_fract_y
_atom_site_fract_z
_atom_site_charge
C 	C 	0.38697 0.24501 0.12220 0.15800
H 	H 	0.41160 0.26270 0.20400 -0.00300
C 	C 	0.31227 0.19518 0.12190 -0.20100
H 	H 	0.28760 0.17820 0.20400 0.11100
O 	O 	0.53184 0.37360 0.12230 -0.51500
C 	C 	0.61303 0.75499 0.12220 0.15800
H 	H 	0.58840 0.73730 0.20400 -0.00300
C 	C 	0.68773 0.80482 0.12190 -0.20100
H 	H 	0.71240 0.82180 0.20400 0.11100
O 	O 	0.46816 0.62640 0.12230 -0.51500
C 	C 	0.75499 0.38697 0.12220 0.15800
H 	H 	0.73730 0.41160 0.20400 -0.00200
C 	C 	0.80482 0.31227 0.12190 -0.20000
H 	H 	0.82180 0.28760 0.20400 0.11200
O 	O 	0.62640 0.53184 0.12230 -0.51400
C 	C 	0.24501 0.61303 0.12220 0.15900
H 	H 	0.26270 0.58840 0.20400 -0.00200
C 	C 	0.19518 0.68773 0.12190 -0.20000
H 	H 	0.17820 0.71240 0.20400 0.11200
O 	O 	0.37360 0.46816 0.12230 -0.51400
C 	C 	0.61303 0.24501 0.37780 0.16000
H 	H 	0.58840 0.26270 0.29600 -0.00200
C 	C 	0.68773 0.19518 0.37810 -0.21600
H 	H 	0.71240 0.17820 0.29600 0.11700
O 	O 	0.46816 0.37360 0.37770 -0.52000
C 	C 	0.38697 0.75499 0.37780 0.16000
H 	H 	0.41160 0.73730 0.29600 -0.00200
C 	C 	0.31227 0.80482 0.37810 -0.21600
H 	H 	0.28760 0.82180 0.29600 0.11700
O 	O 	0.53184 0.62640 0.37770 -0.52000
C 	C 	0.24501 0.38697 0.37780 0.16000
H 	H 	0.26270 0.41160 0.29600 -0.00200
C 	C 	0.19518 0.31227 0.37810 -0.21600
H 	H 	0.17820 0.28760 0.29600 0.11700
O 	O 	0.37360 0.53184 0.37770 -0.52000
C 	C 	0.75499 0.61303 0.37780 0.16000
H 	H 	0.73730 0.58840 0.29600 -0.00200
C 	C 	0.80482 0.68773 0.37810 -0.21600
H 	H 	0.82180 0.71240 0.29600 0.11700
O 	O 	0.62640 0.46816 0.37770 -0.52000
C 	C 	0.61303 0.75499 0.87780 0.19400
H 	H 	0.58840 0.73730 0.79600 -0.00800
C 	C 	0.68773 0.80482 0.87810 -0.16300
H 	H 	0.71240 0.82180 0.79600 0.10800
O 	O 	0.46816 0.62640 0.87770 -0.48600
C 	C 	0.38697 0.24501 0.87780 0.19400
H 	H 	0.41160 0.26270 0.79600 -0.00800
C 	C 	0.31227 0.19518 0.87810 -0.16300
H 	H 	0.28760 0.17820 0.79600 0.10800
O 	O 	0.53184 0.37360 0.87770 -0.48600
C 	C 	0.24501 0.61303 0.87780 0.19400
H 	H 	0.26270 0.58840 0.79600 -0.00800
C 	C 	0.19518 0.68773 0.87810 -0.16300
H 	H 	0.17820 0.71240 0.79600 0.10800
O 	O 	0.37360 0.46816 0.87770 -0.48600
C 	C 	0.75499 0.38697 0.87780 0.19400
H 	H 	0.73730 0.41160 0.79600 -0.00800
C 	C 	0.80482 0.31227 0.87810 -0.16300
H 	H 	0.82180 0.28760 0.79600 0.10800
O 	O 	0.62640 0.53184 0.87770 -0.48600
C 	C 	0.38697 0.75499 0.62220 0.16200
H 	H 	0.41160 0.73730 0.70400 0.00200
C 	C 	0.31227 0.80482 0.62190 -0.21600
H 	H 	0.28760 0.82180 0.70400 0.12600
O 	O 	0.53184 0.62640 0.62230 -0.52000
C 	C 	0.61303 0.24501 0.62220 0.16200
H 	H 	0.58840 0.26270 0.70400 0.00200
C 	C 	0.68773 0.19518 0.62190 -0.21600
H 	H 	0.71240 0.17820 0.70400 0.12600
O 	O 	0.46816 0.37360 0.62230 -0.52000
C 	C 	0.75499 0.61303 0.62220 0.16200
H 	H 	0.73730 0.58840 0.70400 0.00200
C 	C 	0.80482 0.68773 0.62190 -0.21600
H 	H 	0.82180 0.71240 0.70400 0.12600
O 	O 	0.62640 0.46816 0.62230 -0.52000
C 	C 	0.24501 0.38697 0.62220 0.16200
H 	H 	0.26270 0.41160 0.70400 0.00200
C 	C 	0.19518 0.31227 0.62190 -0.21600
H 	H 	0.17820 0.28760 0.70400 0.12600
O 	O 	0.37360 0.53184 0.62230 -0.52000
Tb	Tb	0.50000 0.50000 0.25000 2.26900
Tb	Tb	0.50000 0.50000 0.75000 2.28200
S 	S 	0.52674 0.32096 -0.00000 0.71100
N 	N 	0.02990 0.12970 -0.00000 -0.11900
C 	C 	0.42500 0.26850 -0.00000 -0.26100
C 	C 	0.27350 0.17000 -0.00000 0.11500
C 	C 	0.19150 0.11790 -0.00000 -0.11500
C 	C 	0.11270 0.16440 -0.00000 0.11500
C 	C 	0.10580 0.25800 -0.00000 -0.10300
H 	H 	0.15160 0.29740 -0.00000 0.08900
C 	C 	0.02070 0.27740 -0.00000 -0.07000
H 	H 	0.99720 0.33310 -0.00000 0.05900
C 	C 	0.97200 0.19810 -0.00000 0.10800
O 	O 	0.58954 0.25267 -0.00000 -0.33000
S 	S 	0.47326 0.67904 -0.00000 0.71100
N 	N 	0.97010 0.87030 -0.00000 -0.11900
C 	C 	0.57500 0.73150 -0.00000 -0.26100
C 	C 	0.72650 0.83000 -0.00000 0.11500
C 	C 	0.80850 0.88210 -0.00000 -0.11500
C 	C 	0.88730 0.83560 -0.00000 0.11500
C 	C 	0.89420 0.74200 -0.00000 -0.10300
H 	H 	0.84840 0.70260 -0.00000 0.08900
C 	C 	0.97930 0.72260 -0.00000 -0.07000
H 	H 	0.00280 0.66690 -0.00000 0.05900
C 	C 	0.02800 0.80190 -0.00000 0.10800
O 	O 	0.41046 0.74733 -0.00000 -0.33000
S 	S 	0.67904 0.52674 -0.00000 0.71100
N 	N 	0.87030 0.02990 -0.00000 -0.11900
C 	C 	0.73150 0.42500 -0.00000 -0.26100
C 	C 	0.83000 0.27350 -0.00000 0.11500
C 	C 	0.88210 0.19150 -0.00000 -0.11500
C 	C 	0.83560 0.11270 -0.00000 0.11500
C 	C 	0.74200 0.10580 -0.00000 -0.10300
H 	H 	0.70260 0.15160 -0.00000 0.08900
C 	C 	0.72260 0.02070 -0.00000 -0.07000
H 	H 	0.66690 0.99720 -0.00000 0.05900
C 	C 	0.80190 0.97200 -0.00000 0.10800
O 	O 	0.74733 0.58954 -0.00000 -0.33000
S 	S 	0.32096 0.47326 -0.00000 0.71100
N 	N 	0.12970 0.97010 -0.00000 -0.11900
C 	C 	0.26850 0.57500 -0.00000 -0.26100
C 	C 	0.17000 0.72650 -0.00000 0.11500
C 	C 	0.11790 0.80850 -0.00000 -0.11500
C 	C 	0.16440 0.88730 -0.00000 0.11500
C 	C 	0.25800 0.89420 -0.00000 -0.10300
H 	H 	0.29740 0.84840 -0.00000 0.08900
C 	C 	0.27740 0.97930 -0.00000 -0.07000
H 	H 	0.33310 0.00280 -0.00000 0.05900
C 	C 	0.19810 0.02800 -0.00000 0.10800
O 	O 	0.25267 0.41046 -0.00000 -0.33000
S 	S 	0.47326 0.32096 0.50000 0.75500
N 	N 	0.97010 0.12970 0.50000 -0.11600
C 	C 	0.57500 0.26850 0.50000 -0.22900
C 	C 	0.72650 0.17000 0.50000 0.16600
C 	C 	0.80850 0.11790 0.50000 -0.12400
C 	C 	0.88730 0.16440 0.50000 0.12800
C 	C 	0.89420 0.25800 0.50000 -0.09900
H 	H 	0.84840 0.29740 0.50000 0.09500
C 	C 	0.97930 0.27740 0.50000 -0.06800
H 	H 	0.00280 0.33310 0.50000 0.06800
C 	C 	0.02800 0.19810 0.50000 0.12200
O 	O 	0.41046 0.25267 0.50000 -0.32500
S 	S 	0.52674 0.67904 0.50000 0.75500
N 	N 	0.02990 0.87030 0.50000 -0.11600
C 	C 	0.42500 0.73150 0.50000 -0.22900
C 	C 	0.27350 0.83000 0.50000 0.16600
C 	C 	0.19150 0.88210 0.50000 -0.12400
C 	C 	0.11270 0.83560 0.50000 0.12800
C 	C 	0.10580 0.74200 0.50000 -0.09900
H 	H 	0.15160 0.70260 0.50000 0.09500
C 	C 	0.02070 0.72260 0.50000 -0.06800
H 	H 	0.99720 0.66690 0.50000 0.06800
C 	C 	0.97200 0.80190 0.50000 0.12200
O 	O 	0.58954 0.74733 0.50000 -0.32500
S 	S 	0.32096 0.52674 0.50000 0.75500
N 	N 	0.12970 0.02990 0.50000 -0.11600
C 	C 	0.26850 0.42500 0.50000 -0.22900
C 	C 	0.17000 0.27350 0.50000 0.16600
C 	C 	0.11790 0.19150 0.50000 -0.12400
C 	C 	0.16440 0.11270 0.50000 0.12800
C 	C 	0.25800 0.10580 0.50000 -0.09900
H 	H 	0.29740 0.15160 0.50000 0.09500
C 	C 	0.27740 0.02070 0.50000 -0.06800
H 	H 	0.33310 0.99720 0.50000 0.06800
C 	C 	0.19810 0.97200 0.50000 0.12200
O 	O 	0.25267 0.58954 0.50000 -0.32500
S 	S 	0.67904 0.47326 0.50000 0.75500
N 	N 	0.87030 0.97010 0.50000 -0.11600
C 	C 	0.73150 0.57500 0.50000 -0.22900
C 	C 	0.83000 0.72650 0.50000 0.16600
C 	C 	0.88210 0.80850 0.50000 -0.12400
C 	C 	0.83560 0.88730 0.50000 0.12800
C 	C 	0.74200 0.89420 0.50000 -0.09900
H 	H 	0.70260 0.84840 0.50000 0.09500
C 	C 	0.72260 0.97930 0.50000 -0.06800
H 	H 	0.66690 0.00280 0.50000 0.06800
C 	C 	0.80190 0.02800 0.50000 0.12200
O 	O 	0.74733 0.41046 0.50000 -0.32500
