data_crystal

_cell_length_a 15.52000
_cell_length_b 13.89000
_cell_length_c 13.07690
_cell_angle_alpha 90.00000
_cell_angle_beta  90.00000
_cell_angle_gamma 90.00000

_symmetry_space_group_name_	'P 1'
_symmetry_space_group_name_H-M	'P 1'

loop_
_symmetry_equiv_pos_as_xyz
  x,y,z

loop_
_atom_site_label
_atom_site_type_symbol
_atom_site_fract_x
_atom_site_fract_y
_atom_site_fract_z
_atom_site_charge
U 	U 	0.26136 0.98959 0.43733 0.04000
U 	U 	0.27438 0.73750 0.58520 0.04000
P 	P 	0.27580 0.51870 0.17570 0.47800
P 	P 	0.31290 0.73950 0.34590 0.46600
O 	O 	0.30510 0.82500 0.42040 -0.12400
O 	O 	0.23300 0.59360 0.10390 -0.12500
O 	O 	0.27980 0.43140 0.10210 -0.12500
O 	O 	0.28460 0.65370 0.41440 -0.12500
O 	O 	0.21740 0.49460 0.26480 -0.13900
O 	O 	0.24910 0.75210 0.25540 -0.13200
O 	O 	0.40460 0.72760 0.30870 -0.13000
O 	O 	0.36330 0.54970 0.20960 -0.14600
U 	U 	0.76136 0.48959 0.43733 0.04000
U 	U 	0.77438 0.23750 0.58520 0.04000
P 	P 	0.77580 0.01870 0.17570 0.47600
P 	P 	0.81290 0.23950 0.34590 0.46600
O 	O 	0.80510 0.32500 0.42040 -0.12300
O 	O 	0.73300 0.09360 0.10390 -0.12500
O 	O 	0.77980 0.93140 0.10210 -0.12300
O 	O 	0.78460 0.15370 0.41440 -0.12500
O 	O 	0.71740 0.99460 0.26480 -0.13700
O 	O 	0.74910 0.25210 0.25540 -0.13200
O 	O 	0.90460 0.22760 0.30870 -0.12800
O 	O 	0.86330 0.04970 0.20960 -0.14500
U 	U 	0.73864 0.01041 0.93733 0.04000
U 	U 	0.72562 0.26250 0.08520 0.03900
P 	P 	0.72420 0.48130 0.67570 0.47700
P 	P 	0.68710 0.26050 0.84590 0.46600
O 	O 	0.69490 0.17500 0.92040 -0.12300
O 	O 	0.76700 0.40640 0.60390 -0.12400
O 	O 	0.72020 0.56860 0.60210 -0.12500
O 	O 	0.71540 0.34630 0.91440 -0.12500
O 	O 	0.78260 0.50540 0.76480 -0.13700
O 	O 	0.75090 0.24790 0.75540 -0.13100
O 	O 	0.59540 0.27240 0.80870 -0.13000
O 	O 	0.63670 0.45030 0.70960 -0.14600
U 	U 	0.23864 0.51041 0.93733 0.03900
U 	U 	0.22562 0.76250 0.08520 0.04000
P 	P 	0.22420 0.98130 0.67570 0.47600
P 	P 	0.18710 0.76050 0.84590 0.46600
O 	O 	0.19490 0.67500 0.92040 -0.12500
O 	O 	0.26700 0.90640 0.60390 -0.12500
O 	O 	0.22020 0.06860 0.60210 -0.12500
O 	O 	0.21540 0.84630 0.91440 -0.12700
O 	O 	0.28260 0.00540 0.76480 -0.13700
O 	O 	0.25090 0.74790 0.75540 -0.13200
O 	O 	0.09540 0.77240 0.80870 -0.13200
O 	O 	0.13670 0.95030 0.70960 -0.14700
U 	U 	0.26136 0.01041 0.93733 0.04000
U 	U 	0.27438 0.26250 0.08520 0.03900
P 	P 	0.27580 0.48130 0.67570 0.47700
P 	P 	0.31290 0.26050 0.84590 0.46600
O 	O 	0.30510 0.17500 0.92040 -0.12400
O 	O 	0.23300 0.40640 0.60390 -0.12500
O 	O 	0.27980 0.56860 0.60210 -0.12500
O 	O 	0.28460 0.34630 0.91440 -0.12500
O 	O 	0.21740 0.50540 0.76480 -0.13900
O 	O 	0.24910 0.24790 0.75540 -0.13200
O 	O 	0.40460 0.27240 0.80870 -0.13000
O 	O 	0.36330 0.45030 0.70960 -0.14600
U 	U 	0.76136 0.51041 0.93733 0.03900
U 	U 	0.77438 0.76250 0.08520 0.04000
P 	P 	0.77580 0.98130 0.67570 0.47600
P 	P 	0.81290 0.76050 0.84590 0.46600
O 	O 	0.80510 0.67500 0.92040 -0.12400
O 	O 	0.73300 0.90640 0.60390 -0.12500
O 	O 	0.77980 0.06860 0.60210 -0.12400
O 	O 	0.78460 0.84630 0.91440 -0.12600
O 	O 	0.71740 0.00540 0.76480 -0.13700
O 	O 	0.74910 0.74790 0.75540 -0.13200
O 	O 	0.90460 0.77240 0.80870 -0.12800
O 	O 	0.86330 0.95030 0.70960 -0.14500
U 	U 	0.73864 0.98959 0.43733 0.04000
U 	U 	0.72562 0.73750 0.58520 0.04000
P 	P 	0.72420 0.51870 0.17570 0.47700
P 	P 	0.68710 0.73950 0.34590 0.46600
O 	O 	0.69490 0.82500 0.42040 -0.12400
O 	O 	0.76700 0.59360 0.10390 -0.12400
O 	O 	0.72020 0.43140 0.10210 -0.12500
O 	O 	0.71540 0.65370 0.41440 -0.12500
O 	O 	0.78260 0.49460 0.26480 -0.13700
O 	O 	0.75090 0.75210 0.25540 -0.13100
O 	O 	0.59540 0.72760 0.30870 -0.13000
O 	O 	0.63670 0.54970 0.20960 -0.14600
U 	U 	0.23864 0.48959 0.43733 0.03900
U 	U 	0.22562 0.23750 0.58520 0.03900
P 	P 	0.22420 0.01870 0.17570 0.47600
P 	P 	0.18710 0.23950 0.34590 0.46600
O 	O 	0.19490 0.32500 0.42040 -0.12400
O 	O 	0.26700 0.09360 0.10390 -0.12500
O 	O 	0.22020 0.93140 0.10210 -0.12400
O 	O 	0.21540 0.15370 0.41440 -0.12500
O 	O 	0.28260 0.99460 0.26480 -0.13700
O 	O 	0.25090 0.25210 0.25540 -0.13200
O 	O 	0.09540 0.22760 0.30870 -0.13100
O 	O 	0.13670 0.04970 0.20960 -0.14700
U 	U 	0.50000 0.61003 0.24730 0.04500
U 	U 	0.00000 0.11003 0.24730 0.04200
U 	U 	0.50000 0.38997 0.74730 0.04500
U 	U 	0.00000 0.88997 0.74730 0.04200
