data_crystal

_cell_length_a 10.82940
_cell_length_b 12.74650
_cell_length_c 12.39710
_cell_angle_alpha 90.00000
_cell_angle_beta  95.11500
_cell_angle_gamma 90.00000

_symmetry_space_group_name_	'P 1'
_symmetry_space_group_name_H-M	'P 1'

loop_
_symmetry_equiv_pos_as_xyz
  x,y,z

loop_
_atom_site_label
_atom_site_type_symbol
_atom_site_fract_x
_atom_site_fract_y
_atom_site_fract_z
_atom_site_charge
Fe	Fe	0.02977 0.87900 0.65918 1.26200
Fe	Fe	0.50946 0.87512 0.85221 1.26700
P 	P 	0.56557 0.87658 0.11858 0.57400
P 	P 	0.42927 0.62737 0.89228 0.59300
P 	P 	0.74803 0.83985 0.69691 0.55700
O 	O 	0.48060 0.61360 0.00870 -0.40200
O 	O 	0.87580 0.88800 0.73050 -0.33800
O 	O 	0.45170 0.53160 0.82360 -0.36000
O 	O 	0.50590 0.77790 0.16070 -0.38100
O 	O 	0.21370 0.86630 0.62240 -0.30000
O 	O 	0.12840 0.86820 0.81430 -0.28600
O 	O 	0.66310 0.86600 0.78280 -0.34100
O 	O 	0.58530 0.86930 0.99980 -0.37900
O 	O 	0.48280 0.72230 0.84030 -0.36600
O 	O 	0.48950 0.97040 0.14850 -0.37800
O 	O 	0.32240 0.87970 0.89400 -0.30400
O 	O 	0.40750 0.88210 0.69840 -0.29100
O 	O 	0.70220 0.88490 0.17570 -0.39200
H 	H 	0.69950 0.88920 0.24140 0.23300
O 	O 	0.28420 0.64010 0.89490 -0.39400
H 	H 	0.25200 0.64790 0.83300 0.24200
O 	O 	0.76690 0.71510 0.70280 -0.38800
H 	H 	0.81760 0.69740 0.66100 0.29100
O 	O 	0.70190 0.87160 0.58440 -0.18500
C 	C 	0.29400 0.87400 0.70190 0.22700
C 	C 	0.24440 0.87340 0.81390 0.22300
Fe	Fe	0.47023 0.37900 0.84082 1.26800
Fe	Fe	0.99054 0.37512 0.64779 1.26700
P 	P 	0.93443 0.37658 0.38142 0.57300
P 	P 	0.07073 0.12737 0.60772 0.59500
P 	P 	0.75197 0.33985 0.80309 0.55800
O 	O 	0.01940 0.11360 0.49130 -0.39600
O 	O 	0.62420 0.38800 0.76950 -0.34000
O 	O 	0.04830 0.03160 0.67640 -0.35400
O 	O 	0.99410 0.27790 0.33930 -0.38300
O 	O 	0.28630 0.36630 0.87760 -0.29700
O 	O 	0.37160 0.36820 0.68570 -0.28300
O 	O 	0.83690 0.36600 0.71720 -0.34200
O 	O 	0.91470 0.36930 0.50020 -0.37800
O 	O 	0.01720 0.22230 0.65970 -0.36300
O 	O 	0.01050 0.47040 0.35150 -0.37600
O 	O 	0.17760 0.37970 0.60600 -0.30200
O 	O 	0.09250 0.38210 0.80160 -0.28800
O 	O 	0.79780 0.38490 0.32430 -0.39400
H 	H 	0.80050 0.38920 0.25860 0.23300
O 	O 	0.21580 0.14010 0.60510 -0.39200
H 	H 	0.24800 0.14790 0.66700 0.24200
O 	O 	0.73310 0.21510 0.79720 -0.39000
H 	H 	0.68240 0.19740 0.83900 0.29000
O 	O 	0.79810 0.37160 0.91560 -0.18600
C 	C 	0.20600 0.37400 0.79810 0.22700
C 	C 	0.25560 0.37340 0.68610 0.22300
Fe	Fe	0.97023 0.12100 0.34082 1.26300
Fe	Fe	0.49054 0.12488 0.14779 1.26800
P 	P 	0.43443 0.12342 0.88142 0.57500
P 	P 	0.57073 0.37263 0.10772 0.59400
P 	P 	0.25197 0.16015 0.30309 0.55800
O 	O 	0.51940 0.38640 0.99130 -0.40100
O 	O 	0.12420 0.11200 0.26950 -0.33700
O 	O 	0.54830 0.46840 0.17640 -0.35900
O 	O 	0.49410 0.22210 0.83930 -0.38100
O 	O 	0.78630 0.13370 0.37760 -0.30000
O 	O 	0.87160 0.13180 0.18570 -0.28600
O 	O 	0.33690 0.13400 0.21720 -0.34100
O 	O 	0.41470 0.13070 0.00020 -0.37900
O 	O 	0.51720 0.27770 0.15970 -0.36600
O 	O 	0.51050 0.02960 0.85150 -0.37800
O 	O 	0.67760 0.12030 0.10600 -0.30400
O 	O 	0.59250 0.11790 0.30160 -0.29100
O 	O 	0.29780 0.11510 0.82430 -0.39200
H 	H 	0.30050 0.11080 0.75860 0.23300
O 	O 	0.71580 0.35990 0.10510 -0.39400
H 	H 	0.74800 0.35210 0.16700 0.24200
O 	O 	0.23310 0.28490 0.29720 -0.38800
H 	H 	0.18240 0.30260 0.33900 0.29100
O 	O 	0.29810 0.12840 0.41560 -0.18500
C 	C 	0.70600 0.12600 0.29810 0.22700
C 	C 	0.75560 0.12660 0.18610 0.22300
Fe	Fe	0.52977 0.62100 0.15918 1.26800
Fe	Fe	0.00946 0.62488 0.35221 1.26700
P 	P 	0.06557 0.62342 0.61858 0.57300
P 	P 	0.92927 0.87263 0.39228 0.59500
P 	P 	0.24803 0.66015 0.19691 0.55800
O 	O 	0.98060 0.88640 0.50870 -0.39600
O 	O 	0.37580 0.61200 0.23050 -0.34000
O 	O 	0.95170 0.96840 0.32360 -0.35400
O 	O 	0.00590 0.72210 0.66070 -0.38300
O 	O 	0.71370 0.63370 0.12240 -0.29700
O 	O 	0.62840 0.63180 0.31430 -0.28300
O 	O 	0.16310 0.63400 0.28280 -0.34200
O 	O 	0.08530 0.63070 0.49980 -0.37800
O 	O 	0.98280 0.77770 0.34030 -0.36300
O 	O 	0.98950 0.52960 0.64850 -0.37600
O 	O 	0.82240 0.62030 0.39400 -0.30200
O 	O 	0.90750 0.61790 0.19840 -0.28800
O 	O 	0.20220 0.61510 0.67570 -0.39400
H 	H 	0.19950 0.61080 0.74140 0.23300
O 	O 	0.78420 0.85990 0.39490 -0.39200
H 	H 	0.75200 0.85210 0.33300 0.24200
O 	O 	0.26690 0.78490 0.20280 -0.39000
H 	H 	0.31760 0.80260 0.16100 0.29000
O 	O 	0.20190 0.62840 0.08440 -0.18600
C 	C 	0.79400 0.62600 0.20190 0.22700
C 	C 	0.74440 0.62660 0.31390 0.22300
